data_Fe2O3

  '
num_samples: 1
max_new_tokens: 600
temperature: 0.8
top_k: 10
seed: 1337
device: cuda
dtype: float16
compile: false
target: console

number of parameters: 10.76M
data_Fe2O3
loop_
_atom_type_symbol
_atom_type_electronegativity
_atom_type_radius
_atom_type_ionic_radius
Fe 1.8300 1.4000 0.8525
O 3.4400 0.6000 1.2600
_symmetry_space_group_name_H-M P1
_cell_length_a 5.0804
_cell_length_b 5.0009
_cell_length_c 7.1737
_cell_angle_alpha 100.3734
_cell_angle_beta 90.7456
_cell_angle_gamma 101.1750
_symmetry_Int_Tables_number 1
_chemical_formula_structural Fe2O3
_chemical_formula_sum 'Fe2 O3'
_cell_volume 15.2137
_cell_formula_units_Z 1
loop_
_symmetry_equiv_pos_site_id
_symmetry_equiv_pos_as_xyz
1 'x, y, z'
loop_
_atom_site_type_symbol
_atom_site_label
_atom_site_symmetry_multiplicity
_atom_site_fract_x
_atom_site_fract_y
_atom_site_fract_z
_atom_site_occupancy
Fe Fe0 1 0.2458 0.1582 0.4998 1
Fe Fe1 1 0.4492 0.9657 0.0001 1
O O2 1 0.5858 0.9866 0.1246 1
O O3 1 0.5885 0.5242 0.7535 1
O O4 1 0.8602 0.0668 0.7151 1