data_TiO2

  '
num_samples: 1
max_new_tokens: 600
temperature: 0.8
top_k: 10
seed: 1337
device: cuda
dtype: float16
compile: false
target: console

number of parameters: 10.76M
data_TiO2
loop_
_atom_type_symbol
_atom_type_electronegativity
_atom_type_radius
_atom_type_ionic_radius
Ti 1.5400 1.4000 0.8517
O 3.4400 0.6000 1.2600
_symmetry_space_group_name_H-M I4/mmm
_cell_length_a 3.6804
_cell_length_b 3.6804
_cell_length_c 7.8737
_cell_angle_alpha 90.0000
_cell_angle_beta 90.0000
_cell_angle_gamma 90.0000
_symmetry_Int_Tables_number 139
_chemical_formula_structural TiO
_chemical_formula_sum 'Ti2 O2'
_cell_volume 62.5121
_cell_formula_units_Z 2
loop_
_symmetry_equiv_pos_site_id
_symmetry_equiv_pos_as_xyz
1 'x, y, z'
loop_
_atom_site_type_symbol
_atom_site_label
_atom_site_symmetry_multiplicity
_atom_site_fract_x
_atom_site_fract_y
_atom_site_fract_z
_atom_site_occupancy
Ti Ti0 2 0.0000 0.0000 0.0000 1
O O1 2 0.0000 0.0000 0.5000 1