data_SiO2

  '
num_samples: 1
max_new_tokens: 600
temperature: 0.8
top_k: 10
seed: 1337
device: cuda
dtype: float16
compile: false
target: console

number of parameters: 10.76M
data_SiO2
loop_
_atom_type_symbol
_atom_type_electronegativity
_atom_type_radius
_atom_type_ionic_radius
Si 1.9000 1.1000 0.5400
O 3.4400 0.6000 1.2600
_symmetry_space_group_name_H-M Pmma
_cell_length_a 5.0804
_cell_length_b 2.9009
_cell_length_c 3.9737
_cell_angle_alpha 90.0000
_cell_angle_beta 90.0000
_cell_angle_gamma 90.0000
_symmetry_Int_Tables_number 51
_chemical_formula_structural SiO
_chemical_formula_sum 'Si2 O2'
_cell_volume 73.9512
_cell_formula_units_Z 2
loop_
_symmetry_equiv_pos_site_id
_symmetry_equiv_pos_as_xyz
1 'x, y, z'
loop_
_atom_site_type_symbol
_atom_site_label
_atom_site_symmetry_multiplicity
_atom_site_fract_x
_atom_site_fract_y
_atom_site_fract_z
_atom_site_occupancy
Si Si0 2 0.2500 0.5000 0.0804 1
O O1 2 0.2500 0.0000 0.7490 1