data_SnO2

  '
num_samples: 1
max_new_tokens: 600
temperature: 0.8
top_k: 10
seed: 1337
device: cuda
dtype: float16
compile: false
target: console

number of parameters: 10.76M
data_SnO2
loop_
_atom_type_symbol
_atom_type_electronegativity
_atom_type_radius
_atom_type_ionic_radius
Sn 1.9600 1.4500 0.8300
O 3.4400 0.6000 1.2600
_symmetry_space_group_name_H-M Pmma
_cell_length_a 5.6804
_cell_length_b 3.4009
_cell_length_c 7.1737
_cell_angle_alpha 90.0000
_cell_angle_beta 90.0000
_cell_angle_gamma 90.0000
_symmetry_Int_Tables_number 51
_chemical_formula_structural SnO
_chemical_formula_sum 'Sn2 O2'
_cell_volume 132.5121
_cell_formula_units_Z 2
loop_
_symmetry_equiv_pos_site_id
_symmetry_equiv_pos_as_xyz
1 'x, y, z'
loop_
_atom_site_type_symbol
_atom_site_label
_atom_site_symmetry_multiplicity
_atom_site_fract_x
_atom_site_fract_y
_atom_site_fract_z
_atom_site_occupancy
Sn Sn0 2 0.2500 0.5000 0.8046 1
O O1 2 0.2500 0.0000 0.3900 1