data_CuO

  '
num_samples: 1
max_new_tokens: 600
temperature: 0.8
top_k: 10
seed: 1337
device: cuda
dtype: float16
compile: false
target: console

number of parameters: 10.76M
data_CuO
loop_
_atom_type_symbol
_atom_type_electronegativity
_atom_type_radius
_atom_type_ionic_radius
Ca 1.0000 1.8000 1.1400
Ni 1.9100 1.3500 0.7400
O 3.4400 0.6000 1.2600
_symmetry_space_group_name_H-M Pm-3m
_cell_length_a 4.0364
_cell_length_b 4.0364
_cell_length_c 4.0364
_cell_angle_alpha 90.0000
_cell_angle_beta 90.0000
_cell_angle_gamma 90.0000
_symmetry_Int_Tables_number 221
_chemical_formula_structural CaNiO3
_chemical_formula_sum 'Ca1 Ni1 O3'
_cell_volume 48.0670
_cell_formula_units_Z 1
loop_
_symmetry_equiv_pos_site_id
_symmetry_equiv_pos_as_xyz
1 'x, y, z'
loop_
_atom_site_type_symbol
_atom_site_label
_atom_site_symmetry_multiplicity
_atom_site_fract_x
_atom_site_fract_y
_atom_site_fract_z
_atom_site_occupancy
Ca Ca0 1 0.0000 0.0000 0.0000 1
Ni Ni1 1 0.5000 0.5000 0.5000 1
O O2 3 0.0000 0.5000 0.5000 1