data_Fe2O3
_symmetry_space_group_name_H-M   'R -3 c'
_cell_length_a   5.035
_cell_length_b   5.035
_cell_length_c   13.720
_cell_angle_alpha   90.000
_cell_angle_beta    90.000
_cell_angle_gamma   120.000
loop_
_atom_site_label
_atom_site_type_symbol
_atom_site_fract_x
_atom_site_fract_y
_atom_site_fract_z
Fe1 Fe 0.0000 0.0000 0.3553
O1  O  0.3060 0.0000 0.2500
