data_TiO2
_symmetry_space_group_name_H-M   'P 42/m n m'
_cell_length_a   4.594
_cell_length_b   4.594
_cell_length_c   2.959
_cell_angle_alpha   90.000
_cell_angle_beta    90.000
_cell_angle_gamma   90.000
loop_
_atom_site_label
_atom_site_type_symbol
_atom_site_fract_x
_atom_site_fract_y
_atom_site_fract_z
Ti1 Ti 0.0000 0.0000 0.0000
O1  O  0.3053 0.3053 0.0000
