data_ZnS
_symmetry_space_group_name_H-M   'F -4 3 m'
_cell_length_a   5.406
_cell_length_b   5.406
_cell_length_c   5.406
_cell_angle_alpha   90.000
_cell_angle_beta    90.000
_cell_angle_gamma   90.000
loop_
_atom_site_label
_atom_site_type_symbol
_atom_site_fract_x
_atom_site_fract_y
_atom_site_fract_z
Zn1 Zn 0.0000 0.0000 0.0000
S1  S  0.2500 0.2500 0.2500
